* Testbench for TSMC180nm
* HishamElreedy

*----------------------------------------------------------
*	Parameters and Models
*----------------------------------------------------------
*	Mosfet Model
*----------------------------------------------------------
*.model nm NMOS level=1 VT0=0.776 KP=55.84e-6 LAMBDA=0.025
*.model pm PMOS level=1 VT0=-0.858 KP=23.51e-6 LAMBDA=0.055
.include 180nm.txt

*----------------------------------------------------------
*	Simulation Netlist
*----------------------------------------------------------
M1 sup in gnd gnd nm W=500n L=300n

*---------------------------------------------------------
*	Signal Sources
*---------------------------------------------------------
Vgs in gnd DC 0V
Vdd sup gnd DC 1.8V
*---------------------------------------------------------
*	Stimulus
*---------------------------------------------------------
.dc Vgs 0 1.7 0.001
.end
