* Mos I-V Characteristics
*----------------------------------------------------------
*	Parameters and Models
*----------------------------------------------------------
*	Mosfet Model
*----------------------------------------------------------
.model nm NMOS level=2 VT0=0.2 KP=80e-6 LAMBDA=0.01
.model pm PMOS level=2 VT0=-0.7 KP=80e-6 LAMBDA=0.01
*----------------------------------------------------------
*----------------------------------------------------------
* instruct HSPICE to write the results for use with a waveform viewer
.option post
*----------------------------------------------------------
*	Simulation Netlist
*----------------------------------------------------------
*NMOS
Vgs		g	gnd		DC		1
Vds		d	gnd		DC		1
Ms1		d	g		gnd		gnd		nm		W=100n		L=30n
+ AS=40 PS=26 AD=40 PD=26
*---------------------------------------------------------
*	Stimulus
*---------------------------------------------------------
.dc Vds 0 1.0 0.05 Vgs 0 1.0 0.2
.plot Id(Ms1)
*.op
.end
